86

C      14.64977757      13.72398985       6.11937662
C      12.42495359      19.40790230       6.38585150
C      14.61409704      19.38234964       6.56249585
C       9.52537652      15.97633849       4.88532420
C       9.53055155      17.35428460       4.89605024
C      17.82365579      15.91183264       6.11781241
C      12.84450764      12.36048342       6.21200039
C      14.19860587      12.34729160       6.31121619
C      12.81638562      20.68531200       6.96952645
C      14.17387401      20.68075524       7.04661981
C      11.13120447      14.16959679       5.68486057
C      11.12462790      19.10465381       5.90128062
C      15.98858294      19.04949725       6.39590716
C      16.01132959      14.12026935       6.21870416
H       8.75317620      15.33652281       4.48075165
H       8.75790751      17.99391701       4.49192461
H      18.68825344      15.27144413       6.00362485
H      18.68156420      17.92599940       5.97189367
H      12.18166806      11.51801736       6.36585192
H      14.82129656      11.49400496       6.55478652
H      12.15598162      21.46993865       7.31622312
H       6.85047553      12.93198187       7.03231844
C      19.05161711      12.16886568       7.40448943
N       6.75867123      10.49120597       5.94887739
H      10.94441743      11.65805028       4.53136512
H       9.05959469      10.08571166       4.65717255
C      18.06063341      13.13939636       7.30694957
H      16.34324194      11.91415559       4.63650259
H      18.09735921      10.17833369       4.80141534
H      19.81312093      12.24098521       8.17832800
H       6.72929746       9.76846110       5.23928329
H       5.85244687      10.89413392       6.15591217
H      14.81389597      21.46103354       7.44169535
H      12.40629278      16.64605690       6.19244772
H      14.67081587      16.58908551       6.40104671
N      11.48218627      16.65009019       5.76374160
N      13.57628465      14.54430427       5.89133670
N      15.68570529      16.59091406       6.31568537
N      13.53503591      18.60439486       6.23691607
C      10.75725429      15.52574974       5.45179281
C      10.00368789      13.20035533       5.71614483
C       8.81961905      13.53398595       6.40797394
C       7.74735352      12.65283912       6.48193888
C       7.81722310      11.39658532       5.84876775
C       8.99415325      11.04915234       5.15906150
C      10.06172539      11.93784343       5.09738681
H       8.75039678      14.49176037       6.92159449
N      20.04766411      10.08988708       6.62093039
H      20.89442695      10.35322844       7.11153466
H      20.21441859       9.53186971       5.79189743
C      17.05898155      13.06659115       6.31859034
C      17.09171044      11.98031471       5.42397216
C      18.08169756      11.00554090       5.50888659
C      19.07827614      11.08916362       6.50048598
H      15.67289398      21.26745369       4.92096592
C      17.46039114      22.37621860       5.33771698
C      16.60968080      21.28573560       5.47503255
H      18.45434320      19.42242440       7.64202636
H      19.97281034      21.33901753       7.39934987
H      17.18514870      23.20660065       4.69046794
N      19.52654262      23.52247327       5.93133586
H      19.39054005      24.11246876       5.11895061
H      20.50008290      23.36771711       6.16496226
C      16.94241760      20.18843473       6.29691481
C      18.17241400      20.23474311       6.97868827
C      19.03130183      21.32286238       6.85321603
C      18.68955627      22.40873498       6.02485346
H       9.90892399      23.58810285       5.42609502
N       7.30819054      23.36652425       5.97960301
H       8.41681096      18.95541544       6.35847777
H       6.77315027      20.77181857       6.32752870
H       6.33494321      23.11664597       5.85033197
H       7.57480243      24.22449414       5.51067426
C      10.11665111      20.18994715       5.83089103
C      10.49270125      21.52224049       5.55279629
C       9.58319982      22.57017557       5.62843716
C       8.22448791      22.31675548       5.89379475
C       7.81770581      20.98666410       6.10943270
C       8.75105788      19.95635053       6.09948877
H      11.51165103      21.74069183       5.24185307
C      17.82053277      17.28518791       6.10105298
H      18.05012342      13.96092229       8.02145977
C      10.75036150      17.78911203       5.50330011
C      16.46645740      15.46193392       6.24272600
C      16.46522060      17.72667399       6.25568662
C      12.45808396      13.73926969       5.92206231
VEC1      29.90600000       0.00000000       0.00000000 
VEC2      -0.04558329      30.01986539       0.00000000 
VEC3       0.09360496       0.03571242      11.17295083 
