126

C      12.16474761      10.89366737       2.62883505
C       5.46021416      15.45464102       0.86172115
C       4.07956165      15.37083617       0.75233796
C      12.28266582       9.51255786       2.56760728
C      12.07405962      22.27426684       1.89890618
C      16.58593794      17.87578680       2.09633222
C      12.07358154      23.66393855       1.91521868
C      17.96805894      17.96813621       2.06136088
C      13.62242316      13.20338174       1.59131484
C      12.33511631      13.75549214       1.88717458
C      24.62712893      15.19275144       2.04627740
C       8.49017818      19.97422046       1.45299371
C      12.03194375       4.51333153       1.43489353
C      12.20751103       3.13734376       1.47332848
C       7.53426657      18.98742213       1.43880406
C      11.09632916      13.06006864       1.92996698
C      14.55900125      14.19157779       1.76103196
C      14.22122542      19.02241052       3.36893132
C      23.25058434      15.04363321       2.16538105
C       7.55971292      16.46152016       1.80494166
C       8.17440609      17.73982767       1.73030635
C       8.25933721      15.23508538       1.95421228
C       6.07624040      16.40086560       1.70650796
C      11.16118189      11.57791146       1.90605686
C       7.60732203      13.97051566       2.28828351
C       9.83679285      13.70699688       2.02393150
C       9.73835520      19.38014111       1.83298577
C       3.24929456      16.25152267       1.47355194
C      13.87989997      15.38705475       2.16359338
C      13.24925040      19.96687284       3.28669840
C      13.69464612      17.82017677       2.73084410
C       8.58284601      13.02652481       2.33018208
C      14.45459331      16.63642212       2.52068089
C      12.12465535      19.35013524       2.58872416
C      11.36689708       8.74735356       1.81689672
C      10.93921235      20.04180951       2.21822911
C       1.05167178      17.09859592       1.54014272
C      25.21511705      16.46508983       1.88862706
C      11.12006598       2.26749441       1.70069803
C      10.75618772       5.08398018       1.61366074
H      16.27695131      14.82507644       3.57037962
C      10.56428379       6.53533189       1.67354776
C      10.93809170      21.52409312       2.28169147
C      15.93242380      16.72821663       2.59386372
C      22.39766241      16.16243609       2.15364946
C      20.94542539      16.00609737       2.26783701
C      10.90590975      24.37326211       2.27655191
C       9.84038815       2.84162044       1.84035991
C       9.66176057       4.21848274       1.79376871
C      24.35222869      17.58145256       1.86482868
C      18.76911986      16.89270749       2.49431273
C      22.97970447      17.43568900       2.00035657
C      10.24550639      10.80373156       1.16484331
C       3.85502517      17.19030335       2.33744450
C      10.33313128       9.41579390       1.12752565
C       5.24021253      17.25790676       2.44973265
C       9.80139821      22.24681398       2.70201788
C      16.74211353      15.68874368       3.09943974
C       9.77240260      23.63362748       2.66939287
C      18.12977774      15.75971363       3.04402191
N       9.61430174      15.04949819       1.84013645
N      12.53806435      15.08212220       2.18526891
N       9.50673655      18.02564493       1.92695028
N       1.85277655      16.09002958       1.38394487
N      12.40222266      18.03200145       2.31900913
N      11.56777101       7.35536083       1.73187056
N      10.77550180      25.76914714       2.17052061
N      20.16617442      17.03648536       2.39498519
H      13.40215895       0.92297670       2.38068382
H      18.72209733      14.94327922       3.45284018
H       6.08282898      14.78662030       0.27357702
H       3.62912015      14.64460427       0.07883249
H      12.85339665      11.45704268       3.25574933
H      13.06629266       9.00971954       3.12938325
H      12.95641099      21.75285585       1.53388587
H      15.98779118      18.69378185       1.70617277
H      12.95027143      24.20558420       1.56684608
H      18.44289348      18.85238195       1.64204004
H       9.54417309      27.88294057       1.54271250
H      13.81942389      12.19454421       1.25634977
H       8.87466890      24.16268436       2.98458181
H      13.20270375       2.72587540       1.31802446
H      22.82240238      14.04853802       2.27912169
H      15.17543043      19.11408325       3.87361351
H       8.32463970      21.01027773       1.19366952
H       6.48062497      19.12969458       1.24417126
H       6.55704943      13.82924808       2.51554133
H      15.62002755      14.08327293       1.59410808
H      13.27118002      20.95683587       3.72747131
H       8.93484679      21.71458270       3.08424453
H      11.80027751      15.73408447       2.44537520
H      10.21623106      17.33687751       2.17376077
H       8.46677921      11.98390103       2.60134959
H      20.55418696      14.96573690       2.21398339
H      29.12322244      19.00442375       2.06191953
H      26.69289716      18.74083212       2.24437382
H       8.66603896       4.64067683       1.92359840
H      13.65926065      28.51410863       2.62291339
H      24.76097744      18.57853842       1.71645189
C      11.78754838      26.57464277       2.28403779
H       9.48314733      11.30376559       0.57100097
H       9.64335130       8.84703680       0.50742688
H       3.23444314      17.84069306       2.95083950
H       5.68493124      17.96261042       3.15016494
C      11.31346435       0.80589944       1.81723191
C      10.20268374      29.92924566       1.58997409
C      10.37461112      28.56048922       1.73064154
C      11.61883093      28.02015007       2.11208608
C      12.68783992      28.90943126       2.32895305
C      12.56086975       0.26131537       2.18549236
H       9.27966409       0.29021908       1.27277401
C      26.68068281      16.62678605       1.76002640
C      27.51688627      15.54019456       1.42427922
C      28.89435366      15.68643295       1.34338706
C      29.50390030      16.93450475       1.57690173
C      28.67371671      18.02850621       1.88292886
C      27.29667966      17.87661083       1.97845759
H      27.07964584      14.56686775       1.21054068
H      29.52088775      14.83603759       1.08272212
H      22.33186176      18.30947301       1.97085998
H      12.80828423      26.21824311       2.54582003
H       8.97766312       2.20396521       2.01778637
H      12.88335626       5.16932923       1.26696408
H       9.51073451       6.88768383       1.74203795
H       1.43039641      18.13679943       1.67053106
H      25.25590240      14.30577798       2.08180738
VEC1      29.90600000       0.00000000       0.00000000 
VEC2      -0.04558329      30.01986539       0.00000000 
VEC3       0.09360496       0.03571242      11.17295083 
