126

C      14.45236634       7.03414875       8.26749640
C      21.01980494      11.67348980       9.65876921
C      22.40271511      11.58722706       9.66626201
C      14.40292384       5.64796737       8.28291638
C      14.38056435      18.48461439       9.51108493
C       9.72499744      13.69723349       9.52455026
C      14.45613102      19.87328055       9.48719482
C       8.34209096      13.77997461       9.52020660
C      12.92975731       9.23321185       9.49327594
C      14.17698321       9.85861351       9.16923925
C       1.64597408      11.30871599       8.59044718
C      17.79701426      16.21021235       9.45776656
C      14.77748990       0.70379430       9.34765489
C      14.53649663      29.35098793       9.36285769
C      18.78684483      15.25792748       9.47796455
C      15.44149874       9.22775679       8.99896796
C      11.93965078      10.18423949       9.41226677
C      11.89176442      15.15636863       8.31386492
C       3.02124435      11.10746913       8.57404988
C      18.86225594      12.75185299       8.97040843
C      18.19925786      13.99768162       9.13611888
C      18.18509565      11.51424316       8.78569448
C      20.34625819      12.73126278       9.01037006
C      15.45647361       7.74176157       8.96161253
C      18.84697023      10.27970135       8.36913794
C      16.65913625       9.93181854       8.81599148
C      16.56778021      15.56857667       9.10104386
C      23.18770174      12.58558245       9.05380661
C      12.54763520      11.43050805       9.05597844
C      12.81673667      16.14277393       8.40692774
C      12.56928412      13.91057530       8.66526664
C      17.90812774       9.30101665       8.40171535
C      11.89650461      12.67059392       8.82163823
C      14.08227266      15.50300522       8.75604904
C      15.38952311       4.90249772       8.95889774
C      15.30700237      16.19947539       8.90959725
C      25.40116446      13.41670629       8.95607437
C       1.09701274      12.58444799       8.83369188
C      15.60471033      28.45400966       9.15143026
C      16.05782138       1.24773761       9.12493397
H      10.13215259      10.99608030       7.49497730
C      16.25193337       2.69892859       9.04577085
C      15.32269857      17.68499368       8.83456061
C      10.40888685      12.69249647       8.80947600
C       3.90942285      12.17655901       8.78949518
C       5.36066899      11.97199615       8.77255493
C      15.50528139      20.51725531       8.79829108
C      16.88863107      29.00158340       8.95325099
C      17.13261944       0.35816447       8.94478086
C       1.99299901      13.65021927       9.06021350
C       7.57134335      12.82332669       8.83086850
C       3.36496434      13.45265238       9.03512889
C      16.45029844       6.98770567       9.61880758
C      22.52823813      13.66114744       8.42028448
C      16.42969746       5.59677098       9.61272646
C      21.13905498      13.72669692       8.40106380
C      16.33040762      18.34365759       8.09798525
C       9.63391504      11.75768419       8.09364160
C      16.43780303      19.72690676       8.09700793
C       8.24173104      11.81324171       8.10623820
N      16.84998764      11.28082378       9.00168275
N      13.90016612      11.19120265       8.96009225
N      16.85404305      14.23174639       8.95705169
N      24.58394687      12.41265093       9.05293788
N      13.90392710      14.14641640       8.88375250
N      15.23617961       3.50504053       9.02633299
N      15.71353623      21.90791569       8.86398887
N       6.17331067      12.97891986       8.85801635
H      13.26301858      27.13443527       8.66146594
H       7.66910174      11.09437061       7.52342824
H      20.43931234      10.91646611      10.17664152
H      22.89401587      10.76502049      10.18250545
H      13.70231708       7.58291240       7.70553599
H      13.61259952       5.12810604       7.74636635
H      13.60957568      18.00886131      10.11072655
H      10.29763296      14.41214929      10.10529698
H      13.74764238      20.46177754      10.06642126
H       7.84054004      14.55538411      10.09530657
H      17.04455427      24.02172668       9.44516996
H      12.78965828       8.19447036       9.75954201
H      17.23278986      20.21049588       7.53374442
H      13.53701968      28.96655610       9.55473866
H       3.42055950      10.11227353       8.38390636
H      10.86025556      15.27150912       8.00394511
H      17.91949719      17.25714694       9.69894802
H      19.82428162      15.43440924       9.72294672
H      19.87299494      10.17722621       8.03663112
H      10.88343146      10.01787837       9.57417652
H      12.64749691      17.19531421       8.22232239
H      17.03949707      17.75459637       7.52017050
H      14.59683462      11.89601688       8.72444894
H      16.17137823      13.52150213       8.69936433
H      18.04268619       8.26718682       8.10960453
H       5.71797786      10.92016652       8.70359940
H      27.32715396      15.28070325       8.53875768
H      29.75844091      14.92881592       8.46589286
H      18.13206989       0.75605234       8.77429239
H      12.88894405      24.70728899       8.57502720
H       1.60688779      14.64293042       9.28228288
C      14.72205006      22.74272138       8.88657588
H      17.22350212       7.50319798      10.18402573
H      17.17795163       5.04293191      10.17577279
H      23.10391615      14.42565919       7.90176062
H      20.66157476      14.54732729       7.87016053
C      15.37732299      26.99272455       9.11776694
C      16.43098386      26.08094316       9.33636139
C      16.22059775      24.71104315       9.27250966
C      14.94342801      24.18752211       8.99158375
C      13.88466554      25.09170176       8.79264433
C      14.09835489      26.46351120       8.84900326
H      17.42491277      26.45272049       9.57634835
C      29.66213951      12.79907285       8.85671325
C      28.77289960      11.72748223       9.08280051
C      27.40093419      11.92560222       9.10603907
C      26.85002365      13.20789037       8.91372373
C      27.73205316      14.28108205       8.69154575
C      29.10672930      14.07970431       8.65831679
H      29.16547384      10.72952920       9.26555981
H      26.72998877      11.08954878       9.29259906
H       4.04148264      14.28416114       9.22201466
H      13.66525874      22.41009296       8.78037351
H      17.73759580      28.34420430       8.77885323
H      13.94021588       1.37971824       9.50771859
H      17.29975427       3.05904364       8.94760424
H      25.05049854      14.47170298       8.91426668
H       0.98839371      10.46414611       8.39758888
VEC1      30.02810000       0.00000000       0.00000000 
VEC2      -0.04139049      30.01897147       0.00000000 
VEC3      -0.00441744       0.27811109      10.85913836 
